<?xml version="1.0" encoding="UTF-8"?>
<!DOCTYPE network SYSTEM "http://www.matsim.org/files/dtd/network_v1.dtd">
<network name="">
	<nodes>
		<node id="32" x="451492.704417" y="4412871.025766" />
		<node id="170" x="449310.613148" y="4413678.801675" />
		<node id="173" x="443812.259243" y="4413193.851149" />
		<node id="85" x="450845.015883" y="4409779.803921" />
		<node id="92" x="449069.58086" y="4411878.592843" />
		<node id="13" x="447023.081166" y="4411056.851082" />
		<node id="120" x="451891.914204" y="4406089.512853" />
		<node id="110" x="451395.386373" y="4410649.790685" />
		<node id="10" x="447027.145404" y="4409007.114536" />
		<node id="40" x="445263.987861" y="4406111.806714" />
		<node id="128" x="451294.883184" y="4409152.210443" />
		<node id="83" x="449422.614026" y="4409634.02122" />
		<node id="23" x="446732.41789" y="4411945.969582" />
		<node id="42" x="446207.85586" y="4411936.815394" />
		<node id="155" x="449831.142794" y="4404701.301084" />
		<node id="56" x="446407.889076" y="4410696.210932" />
		<node id="140" x="450266.219174" y="4407827.143278" />
		<node id="141" x="451435.955143" y="4411554.468507" />
		<node id="1" x="445555.267185" y="4409105.265386" />
		<node id="72" x="450576.032977" y="4411073.535087" />
		<node id="143" x="452016.702413" y="4411550.804552" />
		<node id="88" x="451650.621817" y="4409091.768869" />
		<node id="150" x="452013.685465" y="4412068.480618" />
		<node id="61" x="445706.394793" y="4411227.842572" />
		<node id="4" x="451334.632741" y="4409123.319729" />
		<node id="3" x="451332.924232" y="4409123.338193" />
		<node id="6" x="450751.575988" y="4413464.17568" />
		<node id="33" x="452009.262967" y="4412869.581432" />
		<node id="104" x="450890.662114" y="4412078.013258" />
		<node id="124" x="450641.335785" y="4405979.818296" />
		<node id="50" x="448689.119293" y="4410642.631421" />
		<node id="30" x="449973.451513" y="4412843.054547" />
		<node id="126" x="454310.834152" y="4406555.464915" />
		<node id="75" x="450515.726697" y="4409367.682493" />
		<node id="153" x="448098.709134" y="4413559.803383" />
		<node id="93" x="449333.207725" y="4411666.547136" />
		<node id="17" x="451630.017931" y="4409120.127594" />
		<node id="135" x="450413.229143" y="4407542.607938" />
		<node id="47" x="445684.230755" y="4410059.363718" />
		<node id="86" x="450862.118989" y="4409812.898412" />
		<node id="114" x="452216.993391" y="4413254.123655" />
		<node id="105" x="451012.412038" y="4410817.696685" />
		<node id="119" x="451154.992962" y="4407850.383795" />
		<node id="115" x="448629.540671" y="4409731.336234" />
		<node id="54" x="448396.189224" y="4409109.66104" />
		<node id="103" x="450751.217497" y="4413522.883502" />
		<node id="138" x="448282.538104" y="4408163.073569" />
		<node id="36" x="445785.921843" y="4411908.165415" />
		<node id="162" x="449969.824582" y="4413531.313172" />
		<node id="53" x="448394.997161" y="4409147.947619" />
		<node id="163" x="449435.415962" y="4409171.694303" />
		<node id="59" x="446768.090888" y="4411979.278152" />
		<node id="41" x="446147.146243" y="4411212.534093" />
		<node id="9" x="452069.56314" y="4414989.433943" />
		<node id="131" x="450591.941714" y="4408156.29781" />
		<node id="78" x="450515.693644" y="4409396.662746" />
		<node id="116" x="449216.814826" y="4409166.704916" />
		<node id="158" x="449984.96189" y="4410658.806828" />
		<node id="151" x="453100.154452" y="4412809.12538" />
		<node id="165" x="450753.622501" y="4404117.578795" />
		<node id="35" x="445786.950376" y="4411873.194453" />
		<node id="117" x="449984.219936" y="4408406.158645" />
		<node id="27" x="448240.94051" y="4412853.011563" />
		<node id="166" x="451504.94935" y="4410568.470092" />
		<node id="7" x="451516.940311" y="4413398.058304" />
		<node id="129" x="452398.001832" y="4408343.469252" />
		<node id="63" x="447085.032534" y="4411041.900716" />
		<node id="149" x="451444.2187" y="4412111.473681" />
		<node id="95" x="449982.62627" y="4411102.02188" />
		<node id="108" x="450989.967771" y="4410832.417639" />
		<node id="89" x="445968.78525" y="4413368.167911" />
		<node id="122" x="449511.480853" y="4405830.767227" />
		<node id="90" x="448216.191133" y="4412888.739186" />
		<node id="125" x="452908.977502" y="4406332.183791" />
		<node id="76" x="451332.476001" y="4409124.887288" />
		<node id="84" x="450006.527565" y="4409623.333222" />
		<node id="136" x="451293.837953" y="4408281.615885" />
		<node id="168" x="452048.207297" y="4413374.844617" />
		<node id="48" x="448172.868935" y="4411964.035786" />
		<node id="62" x="445682.183838" y="4410466.932314" />
		<node id="68" x="450760.209503" y="4410082.105998" />
		<node id="18" x="447116.568279" y="4412841.646323" />
		<node id="25" x="447076.150187" y="4412841.742939" />
		<node id="112" x="451725.111739" y="4413417.138723" />
		<node id="127" x="454506.329685" y="4406632.299633" />
		<node id="100" x="445971.887101" y="4413410.905082" />
		<node id="142" x="451476.482086" y="4411554.212821" />
		<node id="52" x="448649.291299" y="4409711.703038" />
		<node id="156" x="445026.830885" y="4410021.541953" />
		<node id="28" x="452181.014014" y="4409114.173152" />
		<node id="97" x="450003.189154" y="4411078.205738" />
		<node id="107" x="451053.791628" y="4410626.162021" />
		<node id="79" x="450515.995318" y="4409132.166488" />
		<node id="154" x="448190.145478" y="4410628.429375" />
		<node id="146" x="449359.155796" y="4411925.740839" />
		<node id="109" x="445511.439748" y="4411821.460186" />
		<node id="39" x="446101.119852" y="4410595.360656" />
		<node id="64" x="448786.979645" y="4410260.61473" />
		<node id="132" x="451293.992468" y="4408262.745474" />
		<node id="169" x="454703.93663" y="4406032.271038" />
		<node id="60" x="445608.315874" y="4411231.249116" />
		<node id="80" x="445718.542807" y="4411886.881277" />
		<node id="82" x="449398.382133" y="4409634.464762" />
		<node id="12" x="446982.910913" y="4410594.068451" />
		<node id="55" x="446352.293375" y="4409055.455423" />
		<node id="77" x="451342.789486" y="4409089.243656" />
		<node id="69" x="450764.999169" y="4410082.046148" />
		<node id="20" x="447108.298212" y="4413593.075756" />
		<node id="5" x="449970.230394" y="4413454.304975" />
		<node id="21" x="446728.24985" y="4411902.374094" />
		<node id="22" x="446731.778084" y="4411939.277553" />
		<node id="99" x="449982.718247" y="4411084.567936" />
		<node id="121" x="451935.157675" y="4404485.167229" />
		<node id="159" x="451502.620681" y="4410649.10547" />
		<node id="49" x="448179.876076" y="4411946.082852" />
		<node id="148" x="449978.150231" y="4411951.41" />
		<node id="133" x="452413.391324" y="4408364.10185" />
		<node id="29" x="449334.507269" y="4412815.893491" />
		<node id="65" x="449405.037622" y="4410268.772438" />
		<node id="171" x="449313.394877" y="4413578.342797" />
		<node id="14" x="447016.562552" y="4411940.61589" />
		<node id="46" x="445662.304599" y="4410058.875177" />
		<node id="67" x="450549.361078" y="4410084.740705" />
		<node id="15" x="447096.821601" y="4412798.764717" />
		<node id="38" x="446092.726867" y="4410005.007808" />
		<node id="8" x="451754.693542" y="4413405.645675" />
		<node id="160" x="452140.315896" y="4410645.030673" />
		<node id="11" x="447024.390618" y="4409126.666739" />
		<node id="70" x="450598.245126" y="4412090.038704" />
		<node id="134" x="449876.945953" y="4407406.628187" />
		<node id="71" x="450597.792379" y="4412060.310379" />
		<node id="118" x="450613.004307" y="4408176.490296" />
		<node id="106" x="451047.952639" y="4410652.010746" />
		<node id="43" x="446214.466288" y="4411982.033377" />
		<node id="101" x="451016.388835" y="4411065.346549" />
		<node id="81" x="450516.030572" y="4409101.257754" />
		<node id="167" x="451523.841863" y="4413548.139102" />
		<node id="26" x="448121.050063" y="4412842.974393" />
		<node id="102" x="451049.858795" y="4411064.724166" />
		<node id="137" x="448248.297821" y="4408171.780192" />
		<node id="139" x="450227.83014" y="4407827.141908" />
		<node id="172" x="449437.512022" y="4409095.997556" />
		<node id="24" x="447120.707456" y="4412789.98619" />
		<node id="37" x="447125.392168" y="4412817.914934" />
		<node id="31" x="450766.073825" y="4412858.597937" />
		<node id="145" x="448149.007401" y="4411945.937785" />
		<node id="130" x="452973.919343" y="4404868.346988" />
		<node id="45" x="445117.926275" y="4410062.631102" />
		<node id="58" x="446725.217805" y="4411939.246723" />
		<node id="73" x="450571.157568" y="4410655.057411" />
		<node id="57" x="446454.542069" y="4411194.053348" />
		<node id="96" x="449997.940419" y="4411084.284876" />
		<node id="66" x="449990.927248" y="4410276.505557" />
		<node id="2" x="446350.229697" y="4409116.845947" />
		<node id="34" x="452068.615508" y="4412869.207379" />
		<node id="98" x="449942.586625" y="4411085.314195" />
		<node id="91" x="449017.687295" y="4411931.635664" />
		<node id="44" x="445075.56406" y="4410081.610027" />
		<node id="161" x="452224.271574" y="4410644.494206" />
		<node id="51" x="448814.88324" y="4410260.983028" />
		<node id="144" x="452058.102899" y="4411550.543355" />
		<node id="157" x="449394.129916" y="4410662.691473" />
		<node id="0" x="445530.286278" y="4409104.901478" />
		<node id="123" x="449619.699086" y="4405857.417748" />
		<node id="111" x="451408.734582" y="4410628.374399" />
		<node id="147" x="448246.669445" y="4409144.562164" />
		<node id="113" x="452033.78619" y="4413297.213304" />
		<node id="19" x="447108.61507" y="4413508.823076" />
		<node id="94" x="449367.089892" y="4411639.210228" />
		<node id="87" x="450756.992554" y="4410234.256839" />
		<node id="152" x="448095.652454" y="4413657.879737" />
		<node id="74" x="450530.655184" y="4409613.73955" />
		<node id="164" x="450162.837555" y="4409135.982954" />
		<node id="16" x="447109.188356" y="4412825.500507" />
	</nodes>
	<links capperiod="01:00:00" effectivecellsize="7.5" effectivelanewidth="3.75">
		<link id="0" from="0" to="1" length="24.983557464386138" freespeed="11.11" capacity="21236.023844728217" permlanes="1" oneway="1" modes="car,taxi,walk" />
		<link id="1" from="1" to="2" length="795.0468570332318" freespeed="11.11" capacity="675789.828478247" permlanes="1" oneway="1" modes="car,taxi,walk" />
		<link id="2" from="3" to="4" length="1.708608768044665" freespeed="11.11" capacity="1452.3174528379654" permlanes="1" oneway="1" modes="car,taxi,walk" />
		<link id="3" from="5" to="6" length="788.0482296961836" freespeed="11.11" capacity="669840.9952417561" permlanes="1" oneway="1" modes="car,taxi,walk" />
		<link id="4" from="6" to="7" length="768.2148490691854" freespeed="11.11" capacity="652982.6217088077" permlanes="1" oneway="1" modes="car,taxi,walk" />
		<link id="5" from="7" to="8" length="244.49825483445588" freespeed="11.11" capacity="207823.5166092875" permlanes="1" oneway="1" modes="car,taxi,walk" />
		<link id="6" from="8" to="9" length="1722.2873673446347" freespeed="11.11" capacity="1463944.2622429396" permlanes="1" oneway="1" modes="car,taxi,walk" />
		<link id="7" from="10" to="11" length="119.58393741619916" freespeed="11.11" capacity="101646.3468037693" permlanes="1" oneway="1" modes="car,taxi,walk" />
		<link id="8" from="11" to="12" length="1468.7426456220112" freespeed="11.11" capacity="1248431.2487787094" permlanes="1" oneway="1" modes="car,taxi,walk" />
		<link id="9" from="12" to="13" length="464.60737178947414" freespeed="11.11" capacity="394916.266021053" permlanes="1" oneway="1" modes="car,taxi,walk" />
		<link id="10" from="13" to="14" length="883.8057580959066" freespeed="11.11" capacity="751234.8943815207" permlanes="1" oneway="1" modes="car,taxi,walk" />
		<link id="11" from="14" to="15" length="872.9941707958568" freespeed="11.11" capacity="742045.0451764783" permlanes="1" oneway="1" modes="car,taxi,walk" />
		<link id="12" from="15" to="16" length="29.45741156603242" freespeed="11.11" capacity="25038.799831127555" permlanes="1" oneway="1" modes="car,taxi,walk" />
		<link id="13" from="4" to="17" length="295.4024376967778" freespeed="11.11" capacity="251092.0720422611" permlanes="1" oneway="1" modes="car,taxi,walk" />
		<link id="14" from="16" to="18" length="17.770809282434563" freespeed="11.11" capacity="15105.18789006938" permlanes="1" oneway="1" modes="car,taxi,walk" />
		<link id="15" from="18" to="19" length="667.2467205312325" freespeed="11.11" capacity="567159.7124515476" permlanes="1" oneway="1" modes="car,taxi,walk" />
		<link id="16" from="19" to="20" length="84.25327581857401" freespeed="11.11" capacity="71615.28444578791" permlanes="1" oneway="1" modes="car,taxi,walk" />
		<link id="17" from="21" to="22" length="37.07173750020476" freespeed="11.11" capacity="31510.97687517405" permlanes="1" oneway="1" modes="car,taxi,walk" />
		<link id="18" from="22" to="23" length="6.722544448194128" freespeed="11.11" capacity="5714.162780965009" permlanes="1" oneway="1" modes="car,taxi,walk" />
		<link id="19" from="23" to="15" length="1043.1194799229277" freespeed="11.11" capacity="886651.5579344885" permlanes="1" oneway="1" modes="car,taxi,walk" />
		<link id="20" from="15" to="24" length="25.4479194703724" freespeed="11.11" capacity="21630.73154981654" permlanes="1" oneway="1" modes="car,taxi,walk" />
		<link id="21" from="25" to="18" length="40.418207475993874" freespeed="11.11" capacity="34355.47635459479" permlanes="1" oneway="1" modes="car,taxi,walk" />
		<link id="22" from="18" to="26" length="1004.6360352435587" freespeed="11.11" capacity="853940.6299570249" permlanes="1" oneway="1" modes="car,taxi,walk" />
		<link id="23" from="26" to="27" length="120.3098668583431" freespeed="11.11" capacity="102263.38682959163" permlanes="1" oneway="1" modes="car,taxi,walk" />
		<link id="24" from="17" to="28" length="551.028255955094" freespeed="11.11" capacity="468374.0175618299" permlanes="1" oneway="1" modes="car,taxi,walk" />
		<link id="25" from="27" to="29" length="1097.7025211568953" freespeed="11.11" capacity="933047.142983361" permlanes="1" oneway="1" modes="car,taxi,walk" />
		<link id="26" from="29" to="30" length="639.5235588368762" freespeed="11.11" capacity="543595.0250113448" permlanes="1" oneway="1" modes="car,taxi,walk" />
		<link id="27" from="30" to="31" length="792.7981202941177" freespeed="11.11" capacity="673878.40225" permlanes="1" oneway="1" modes="car,taxi,walk" />
		<link id="28" from="31" to="32" length="726.7368630831158" freespeed="11.11" capacity="617726.3336206485" permlanes="1" oneway="1" modes="car,taxi,walk" />
		<link id="29" from="32" to="33" length="516.5785886179945" freespeed="11.11" capacity="439091.8003252953" permlanes="1" oneway="1" modes="car,taxi,walk" />
		<link id="30" from="33" to="34" length="59.35371967116443" freespeed="11.11" capacity="50450.66172048976" permlanes="1" oneway="1" modes="car,taxi,walk" />
		<link id="31" from="35" to="36" length="34.98608385262859" freespeed="11.11" capacity="29738.1712747343" permlanes="1" oneway="1" modes="car,taxi,walk" />
		<link id="32" from="36" to="16" length="1808.7111749098399" freespeed="11.11" capacity="1537404.4986733638" permlanes="1" oneway="1" modes="car,taxi,walk" />
		<link id="33" from="16" to="37" length="17.89146279843946" freespeed="11.11" capacity="15207.74337867354" permlanes="1" oneway="1" modes="car,taxi,walk" />
		<link id="34" from="38" to="39" length="590.4125060826498" freespeed="11.11" capacity="501850.6301702523" permlanes="1" oneway="1" modes="car,taxi,walk" />
		<link id="35" from="40" to="1" length="3069.452545509652" freespeed="11.11" capacity="2609034.663683204" permlanes="1" oneway="1" modes="car,taxi,walk" />
		<link id="36" from="39" to="41" length="618.9647717511838" freespeed="11.11" capacity="526120.0559885062" permlanes="1" oneway="1" modes="car,taxi,walk" />
		<link id="37" from="41" to="42" length="727.5328845998816" freespeed="11.11" capacity="618402.9519098994" permlanes="1" oneway="1" modes="car,taxi,walk" />
		<link id="38" from="42" to="43" length="45.698618632618555" freespeed="11.11" capacity="38843.82583772577" permlanes="1" oneway="1" modes="car,taxi,walk" />
		<link id="39" from="44" to="45" length="46.41935861100816" freespeed="11.11" capacity="39456.454819356935" permlanes="1" oneway="1" modes="car,taxi,walk" />
		<link id="40" from="45" to="46" length="547.7399895678401" freespeed="11.11" capacity="465578.9911326641" permlanes="1" oneway="1" modes="car,taxi,walk" />
		<link id="41" from="46" to="47" length="21.931597963796143" freespeed="11.11" capacity="18641.858269226723" permlanes="1" oneway="1" modes="car,taxi,walk" />
		<link id="42" from="48" to="49" length="19.27194500282586" freespeed="11.11" capacity="16381.15325240198" permlanes="1" oneway="1" modes="car,taxi,walk" />
		<link id="43" from="49" to="50" length="1399.4009139585903" freespeed="11.11" capacity="1189490.7768648018" permlanes="1" oneway="1" modes="car,taxi,walk" />
		<link id="44" from="50" to="51" length="403.5082976678705" freespeed="11.11" capacity="342982.05301768996" permlanes="1" oneway="1" modes="car,taxi,walk" />
		<link id="45" from="51" to="52" length="592.0164827501633" freespeed="11.11" capacity="503214.0103376388" permlanes="1" oneway="1" modes="car,taxi,walk" />
		<link id="46" from="1" to="46" length="963.9286023828707" freespeed="11.11" capacity="819339.3120254402" permlanes="1" oneway="1" modes="car,taxi,walk" />
		<link id="47" from="52" to="53" length="647.3133678721732" freespeed="11.11" capacity="550216.3626913473" permlanes="1" oneway="1" modes="car,taxi,walk" />
		<link id="48" from="53" to="54" length="38.30513210756059" freespeed="11.11" capacity="32559.3622914265" permlanes="1" oneway="1" modes="car,taxi,walk" />
		<link id="49" from="55" to="2" length="61.4252000719055" freespeed="11.11" capacity="52211.42006111967" permlanes="1" oneway="1" modes="car,taxi,walk" />
		<link id="50" from="2" to="56" length="1595.4727013761922" freespeed="11.11" capacity="1356151.7961697634" permlanes="1" oneway="1" modes="car,taxi,walk" />
		<link id="51" from="56" to="57" length="504.2019059848056" freespeed="11.11" capacity="428571.62008708477" permlanes="1" oneway="1" modes="car,taxi,walk" />
		<link id="52" from="57" to="58" length="828.004368398835" freespeed="11.11" capacity="703803.7131390098" permlanes="1" oneway="1" modes="car,taxi,walk" />
		<link id="53" from="58" to="23" length="9.850789670813038" freespeed="11.11" capacity="8373.171220191081" permlanes="1" oneway="1" modes="car,taxi,walk" />
		<link id="54" from="23" to="59" length="48.805979364985255" freespeed="11.11" capacity="41485.08246023746" permlanes="1" oneway="1" modes="car,taxi,walk" />
		<link id="55" from="60" to="61" length="98.13806037532217" freespeed="11.11" capacity="83417.35131902384" permlanes="1" oneway="1" modes="car,taxi,walk" />
		<link id="56" from="61" to="41" length="441.0172221199259" freespeed="11.11" capacity="374864.63880193705" permlanes="1" oneway="1" modes="car,taxi,walk" />
		<link id="57" from="46" to="62" length="408.5438485395043" freespeed="11.11" capacity="347262.2712585787" permlanes="1" oneway="1" modes="car,taxi,walk" />
		<link id="58" from="41" to="57" length="308.6428099864567" freespeed="11.11" capacity="262346.3884884882" permlanes="1" oneway="1" modes="car,taxi,walk" />
		<link id="59" from="57" to="13" length="584.8599547012395" freespeed="11.11" capacity="497130.9614960536" permlanes="1" oneway="1" modes="car,taxi,walk" />
		<link id="60" from="13" to="63" length="63.729784564188996" freespeed="11.11" capacity="54170.31687956065" permlanes="1" oneway="1" modes="car,taxi,walk" />
		<link id="61" from="64" to="51" length="27.9060254665598" freespeed="11.11" capacity="23720.12164657583" permlanes="1" oneway="1" modes="car,taxi,walk" />
		<link id="62" from="51" to="65" length="590.2057857238616" freespeed="11.11" capacity="501674.91786528233" permlanes="1" oneway="1" modes="car,taxi,walk" />
		<link id="63" from="65" to="66" length="585.9406582444212" freespeed="11.11" capacity="498049.55950775807" permlanes="1" oneway="1" modes="car,taxi,walk" />
		<link id="64" from="66" to="67" length="660.575280187767" freespeed="11.11" capacity="561488.9881596019" permlanes="1" oneway="1" modes="car,taxi,walk" />
		<link id="65" from="67" to="68" length="210.86488566371332" freespeed="11.11" capacity="179235.15281415632" permlanes="1" oneway="1" modes="car,taxi,walk" />
		<link id="66" from="68" to="69" length="4.790039917788593" freespeed="11.11" capacity="4071.533930120304" permlanes="1" oneway="1" modes="car,taxi,walk" />
		<link id="67" from="70" to="71" length="29.731772351368697" freespeed="11.11" capacity="25272.00649866339" permlanes="1" oneway="1" modes="car,taxi,walk" />
		<link id="68" from="62" to="61" length="761.3068161293257" freespeed="11.11" capacity="647110.7937099269" permlanes="1" oneway="1" modes="car,taxi,walk" />
		<link id="69" from="71" to="72" length="987.0371252854359" freespeed="11.11" capacity="838981.5564926205" permlanes="1" oneway="1" modes="car,taxi,walk" />
		<link id="70" from="72" to="73" length="418.50658442613593" freespeed="11.11" capacity="355730.59676221554" permlanes="1" oneway="1" modes="car,taxi,walk" />
		<link id="71" from="73" to="67" length="570.7444520712739" freespeed="11.11" capacity="485132.7842605829" permlanes="1" oneway="1" modes="car,taxi,walk" />
		<link id="72" from="67" to="74" length="471.37246258329867" freespeed="11.11" capacity="400666.5931958039" permlanes="1" oneway="1" modes="car,taxi,walk" />
		<link id="73" from="74" to="75" length="710.4766327423033" freespeed="11.11" capacity="603905.1378309578" permlanes="1" oneway="1" modes="car,taxi,walk" />
		<link id="74" from="75" to="76" length="916.9292395165587" freespeed="11.11" capacity="779389.8535890749" permlanes="1" oneway="1" modes="car,taxi,walk" />
		<link id="75" from="76" to="3" length="1.6126395594992482" freespeed="11.11" capacity="1370.743625574361" permlanes="1" oneway="1" modes="car,taxi,walk" />
		<link id="76" from="3" to="77" length="35.493107637126954" freespeed="11.11" capacity="30169.14149155791" permlanes="1" oneway="1" modes="car,taxi,walk" />
		<link id="77" from="78" to="75" length="28.980271848861978" freespeed="11.11" capacity="24633.231071532682" permlanes="1" oneway="1" modes="car,taxi,walk" />
		<link id="78" from="75" to="79" length="235.51615818972707" freespeed="11.11" capacity="200188.734461268" permlanes="1" oneway="1" modes="car,taxi,walk" />
		<link id="79" from="61" to="80" length="659.154056138029" freespeed="11.11" capacity="560280.9477173246" permlanes="1" oneway="1" modes="car,taxi,walk" />
		<link id="80" from="79" to="81" length="30.908754105351374" freespeed="11.11" capacity="26272.440989548668" permlanes="1" oneway="1" modes="car,taxi,walk" />
		<link id="81" from="82" to="83" length="24.23595196954346" freespeed="11.11" capacity="20600.559174111942" permlanes="1" oneway="1" modes="car,taxi,walk" />
		<link id="82" from="83" to="84" length="584.0113477739377" freespeed="11.11" capacity="496409.645607847" permlanes="1" oneway="1" modes="car,taxi,walk" />
		<link id="83" from="84" to="74" length="524.2154132997487" freespeed="11.11" capacity="445583.10130478634" permlanes="1" oneway="1" modes="car,taxi,walk" />
		<link id="84" from="74" to="85" length="407.90834493791925" freespeed="11.11" capacity="346722.09319723136" permlanes="1" oneway="1" modes="car,taxi,walk" />
		<link id="85" from="85" to="86" length="37.25267197685501" freespeed="11.11" capacity="31664.77118032676" permlanes="1" oneway="1" modes="car,taxi,walk" />
		<link id="86" from="87" to="68" length="152.18484542733452" freespeed="11.11" capacity="129357.11861323434" permlanes="1" oneway="1" modes="car,taxi,walk" />
		<link id="87" from="68" to="85" length="347.56763181696795" freespeed="11.11" capacity="295432.48704442277" permlanes="1" oneway="1" modes="car,taxi,walk" />
		<link id="88" from="85" to="17" length="1037.292332193833" freespeed="11.11" capacity="881698.4823647582" permlanes="1" oneway="1" modes="car,taxi,walk" />
		<link id="89" from="17" to="88" length="35.05335079470017" freespeed="11.11" capacity="29795.348175495146" permlanes="1" oneway="1" modes="car,taxi,walk" />
		<link id="90" from="80" to="89" length="1516.6237128461194" freespeed="11.11" capacity="1289130.1559192014" permlanes="1" oneway="1" modes="car,taxi,walk" />
		<link id="91" from="90" to="27" length="43.46256673395191" freespeed="11.11" capacity="36943.181723859125" permlanes="1" oneway="1" modes="car,taxi,walk" />
		<link id="92" from="27" to="91" length="1207.4123007377202" freespeed="11.11" capacity="1026300.4556270621" permlanes="1" oneway="1" modes="car,taxi,walk" />
		<link id="93" from="91" to="92" length="74.2056800257222" freespeed="11.11" capacity="63074.82802186387" permlanes="1" oneway="1" modes="car,taxi,walk" />
		<link id="94" from="93" to="94" length="43.535132705058565" freespeed="11.11" capacity="37004.86279929978" permlanes="1" oneway="1" modes="car,taxi,walk" />
		<link id="95" from="94" to="95" length="819.2136354606239" freespeed="11.11" capacity="696331.5901415303" permlanes="1" oneway="1" modes="car,taxi,walk" />
		<link id="96" from="95" to="96" length="23.433405012530198" freespeed="11.11" capacity="19918.394260650668" permlanes="1" oneway="1" modes="car,taxi,walk" />
		<link id="97" from="96" to="97" length="8.031509069260435" freespeed="11.11" capacity="6826.78270887137" permlanes="1" oneway="1" modes="car,taxi,walk" />
		<link id="98" from="98" to="99" length="40.13855985017442" freespeed="11.11" capacity="34117.77587264826" permlanes="1" oneway="1" modes="car,taxi,walk" />
		<link id="99" from="99" to="96" length="15.224803557377196" freespeed="11.11" capacity="12941.083023770618" permlanes="1" oneway="1" modes="car,taxi,walk" />
		<link id="100" from="96" to="72" length="578.1924969926044" freespeed="11.11" capacity="491463.6224437138" permlanes="1" oneway="1" modes="car,taxi,walk" />
		<link id="101" from="89" to="100" length="42.849588851911" freespeed="11.11" capacity="36422.15052412435" permlanes="1" oneway="1" modes="car,taxi,walk" />
		<link id="102" from="72" to="101" length="440.431985475044" freespeed="11.11" capacity="374367.1876537874" permlanes="1" oneway="1" modes="car,taxi,walk" />
		<link id="103" from="101" to="102" length="33.47574619034891" freespeed="11.11" capacity="28454.38426179657" permlanes="1" oneway="1" modes="car,taxi,walk" />
		<link id="104" from="103" to="6" length="58.70891652673211" freespeed="11.11" capacity="49902.57904772229" permlanes="1" oneway="1" modes="car,taxi,walk" />
		<link id="105" from="6" to="31" length="605.8452091642127" freespeed="11.11" capacity="514968.42778958083" permlanes="1" oneway="1" modes="car,taxi,walk" />
		<link id="106" from="31" to="104" length="798.1886049792554" freespeed="11.11" capacity="678460.3142323671" permlanes="1" oneway="1" modes="car,taxi,walk" />
		<link id="107" from="104" to="101" length="1023.6987635866643" freespeed="11.11" capacity="870143.9490486647" permlanes="1" oneway="1" modes="car,taxi,walk" />
		<link id="108" from="101" to="105" length="247.68179192921943" freespeed="11.11" capacity="210529.52313983653" permlanes="1" oneway="1" modes="car,taxi,walk" />
		<link id="109" from="105" to="106" length="169.66511560142618" freespeed="11.11" capacity="144215.34826121226" permlanes="1" oneway="1" modes="car,taxi,walk" />
		<link id="110" from="106" to="107" length="26.50000710731383" freespeed="11.11" capacity="22525.006041216755" permlanes="1" oneway="1" modes="car,taxi,walk" />
		<link id="111" from="108" to="105" length="26.841229626053956" freespeed="11.11" capacity="22815.045182145863" permlanes="1" oneway="1" modes="car,taxi,walk" />
		<link id="112" from="2" to="11" length="674.2324490552758" freespeed="11.11" capacity="573097.5816969844" permlanes="1" oneway="1" modes="car,taxi,walk" />
		<link id="113" from="109" to="80" length="217.1902304311411" freespeed="11.11" capacity="184611.69586646993" permlanes="1" oneway="1" modes="car,taxi,walk" />
		<link id="114" from="105" to="110" length="436.3043701696385" freespeed="11.11" capacity="370858.7146441927" permlanes="1" oneway="1" modes="car,taxi,walk" />
		<link id="115" from="110" to="111" length="25.23553030043403" freespeed="11.11" capacity="21450.200755368925" permlanes="1" oneway="1" modes="car,taxi,walk" />
		<link id="116" from="112" to="8" length="31.735992517408906" freespeed="11.11" capacity="26975.59363979757" permlanes="1" oneway="1" modes="car,taxi,walk" />
		<link id="117" from="8" to="113" length="299.4165747721576" freespeed="11.11" capacity="254504.08855633397" permlanes="1" oneway="1" modes="car,taxi,walk" />
		<link id="118" from="113" to="114" length="192.1847594564637" freespeed="11.11" capacity="163357.04553799413" permlanes="1" oneway="1" modes="car,taxi,walk" />
		<link id="119" from="115" to="52" length="27.84869281613116" freespeed="11.11" capacity="23671.388893711486" permlanes="1" oneway="1" modes="car,taxi,walk" />
		<link id="120" from="52" to="116" length="787.204305258652" freespeed="11.11" capacity="669123.6594698542" permlanes="1" oneway="1" modes="car,taxi,walk" />
		<link id="121" from="116" to="117" length="1090.1619769774231" freespeed="11.11" capacity="926637.6804308096" permlanes="1" oneway="1" modes="car,taxi,walk" />
		<link id="122" from="117" to="118" length="670.5597611335955" freespeed="11.11" capacity="569975.7969635562" permlanes="1" oneway="1" modes="car,taxi,walk" />
		<link id="123" from="118" to="119" length="651.1173607237091" freespeed="11.11" capacity="553449.7566151527" permlanes="1" oneway="1" modes="car,taxi,walk" />
		<link id="124" from="80" to="36" length="70.66080259037825" freespeed="11.11" capacity="60061.68220182152" permlanes="1" oneway="1" modes="car,taxi,walk" />
		<link id="125" from="119" to="120" length="2003.801851268922" freespeed="11.11" capacity="1703231.5735785838" permlanes="1" oneway="1" modes="car,taxi,walk" />